Circuit: * D:\RESEARCH\Accelerator\schematics\amp.asc

Direct Newton iteration for .op point succeeded.

Date: Mon Jul 30 23:15:48 2018
Total elapsed time: 0.057 seconds.

tnom = 27
temp = 27
method = trap
totiter = 26
traniter = 0
tranpoints = 0
accept = 0
rejected = 0
matrix size = 51
fillins = 35
solver = Normal
Matrix Compiler1:     204 opcodes
Matrix Compiler2: 4.81 KB object code size
